1_Basic_simulation/Line.dss
!LineCodes definition 
New LineCode.Code_1 nphases=3 basefreq=60 units=km 
~ Rmatrix=[0.09813333 |0.04013333 0.09813333 |0.04013333 0.04013333 0.09813333 ]
~ Xmatrix=[0.2153 |0.0947 0.2153 |0.0947 0.0947 0.2153 ]
~ Cmatrix=[2.8 |-0.6 2.8 |-0.6 -0.6 2.8 ]
! Lines definition
New "Line.line_0"  phases=3 bus1=main_switch_panel.1.2.3 bus2=dcfc.1.2.3 linecode=Code_1
New "Line.line_1"  phases=3 bus1=switch_panel_1.1.2.3    bus2=1.1.2.3    linecode=Code_1
New "Line.line_2"  phases=3 bus1=switch_panel_1.1.2.3    bus2=9.1.2.3    linecode=Code_1
New "Line.line_3"  phases=3 bus1=switch_panel_1.1.2.3    bus2=2x19.1.2.3 linecode=Code_1
New "Line.line_4"  phases=3 bus1=1.1.2.3 				 bus2=2.1.2.3    linecode=Code_1
New "Line.line_5"  phases=3 bus1=1.1.2.3 				 bus2=3.1.2.3    linecode=Code_1
New "Line.line_6"  phases=3 bus1=3.1.2.3 				 bus2=5.1.2.3    linecode=Code_1
New "Line.line_7"  phases=3 bus1=5.1.2.3 			     bus2=7.1.2.3    linecode=Code_1
New "Line.line_8"  phases=3 bus1=3.1.2.3 				 bus2=4.1.2.3    linecode=Code_1
New "Line.line_9"  phases=3 bus1=5.1.2.3 				 bus2=6.1.2.3    linecode=Code_1
New "Line.line_10" phases=3 bus1=7.1.2.3 				 bus2=8.1.2.3    linecode=Code_1
New "Line.line_11" phases=3 bus1=9.1.2.3 				 bus2=10.1.2.3   linecode=Code_1
New "Line.line_12" phases=3 bus1=9.1.2.3 				 bus2=11.1.2.3   linecode=Code_1
New "Line.line_13" phases=3 bus1=11.1.2.3 				 bus2=12.1.2.3   linecode=Code_1
New "Line.line_14" phases=3 bus1=11.1.2.3 			 	 bus2=13.1.2.3   linecode=Code_1
New "Line.line_15" phases=3 bus1=13.1.2.3				 bus2=14.1.2.3   linecode=Code_1
New "Line.line_16" phases=3 bus1=13.1.2.3				 bus2=15.1.2.3   linecode=Code_1
New "Line.line_17" phases=3 bus1=15.1.2.3				 bus2=16.1.2.3   linecode=Code_1
New "Line.line_18" phases=3 bus1=2x19.1.2.3				 bus2=39.1.2.3   linecode=Code_1
New "Line.line_19" phases=3 bus1=2x19.1.2.3 			 bus2=17.1.2.3   linecode=Code_1
New "Line.line_20" phases=3 bus1=17.1.2.3 				 bus2=18.1.2.3   linecode=Code_1
New "Line.line_21" phases=3 bus1=18.1.2.3				 bus2=19.1.2.3   linecode=Code_1
New "Line.line_22" phases=3 bus1=19.1.2.3				 bus2=20.1.2.3   linecode=Code_1
New "Line.line_23" phases=3 bus1=17.1.2.3				 bus2=21.1.2.3   linecode=Code_1
New "Line.line_24" phases=3 bus1=21.1.2.3				 bus2=25.1.2.3   linecode=Code_1
New "Line.line_25" phases=3 bus1=25.1.2.3				 bus2=29.1.2.3   linecode=Code_1
New "Line.line_26" phases=3 bus1=29.1.2.3				 bus2=33.1.2.3	 linecode=Code_1
New "Line.line_27" phases=3 bus1=21.1.2.3				 bus2=22.1.2.3	 linecode=Code_1
New "Line.line_28" phases=3 bus1=22.1.2.3				 bus2=23.1.2.3	 linecode=Code_1
New "Line.line_29" phases=3 bus1=23.1.2.3				 bus2=24.1.2.3	 linecode=Code_1
New "Line.line_30" phases=3 bus1=25.1.2.3				 bus2=26.1.2.3	 linecode=Code_1
New "Line.line_31" phases=3 bus1=26.1.2.3				 bus2=27.1.2.3	 linecode=Code_1
New "Line.line_32" phases=3 bus1=27.1.2.3				 bus2=28.1.2.3	 linecode=Code_1
New "Line.line_33" phases=3 bus1=29.1.2.3				 bus2=30.1.2.3	 linecode=Code_1
New "Line.line_34" phases=3 bus1=30.1.2.3				 bus2=31.1.2.3	 linecode=Code_1
New "Line.line_35" phases=3 bus1=31.1.2.3				 bus2=32.1.2.3	 linecode=Code_1
New "Line.line_36" phases=3 bus1=33.1.2.3				 bus2=34.1.2.3	 linecode=Code_1
New "Line.line_37" phases=3 bus1=34.1.2.3				 bus2=35.1.2.3	 linecode=Code_1
New "Line.line_38" phases=3 bus1=39.1.2.3				 bus2=38.1.2.3	 linecode=Code_1
New "Line.line_39" phases=3 bus1=38.1.2.3				 bus2=37.1.2.3	 linecode=Code_1
New "Line.line_40" phases=3 bus1=37.1.2.3				 bus2=36.1.2.3	 linecode=Code_1
New "Line.line_41" phases=3 bus1=36.1.2.3				 bus2=40.1.2.3	 linecode=Code_1
New "Line.line_42" phases=3 bus1=40.1.2.3				 bus2=44.1.2.3	 linecode=Code_1
New "Line.line_43" phases=3 bus1=44.1.2.3				 bus2=48.1.2.3	 linecode=Code_1
New "Line.line_44" phases=3 bus1=48.1.2.3				 bus2=52.1.2.3	 linecode=Code_1
New "Line.line_45" phases=3 bus1=40.1.2.3				 bus2=41.1.2.3	 linecode=Code_1
New "Line.line_46" phases=3 bus1=41.1.2.3				 bus2=42.1.2.3	 linecode=Code_1
New "Line.line_47" phases=3 bus1=42.1.2.3				 bus2=43.1.2.3	 linecode=Code_1
New "Line.line_48" phases=3 bus1=44.1.2.3				 bus2=45.1.2.3 	 linecode=Code_1
New "Line.line_49" phases=3 bus1=45.1.2.3				 bus2=46.1.2.3 	 linecode=Code_1
New "Line.line_50" phases=3 bus1=46.1.2.3				 bus2=47.1.2.3	 linecode=Code_1
New "Line.line_51" phases=3 bus1=52.1.2.3				 bus2=53.1.2.3	 linecode=Code_1
New "Line.line_52" phases=3 bus1=53.1.2.3				 bus2=54.1.2.3	 linecode=Code_1
New "Line.line_53" phases=3 bus1=48.1.2.3				 bus2=49.1.2.3	 linecode=Code_1
New "Line.line_54" phases=3 bus1=49.1.2.3				 bus2=50.1.2.3	 linecode=Code_1
New "Line.line_55" phases=3 bus1=50.1.2.3				 bus2=51.1.2.3	 linecode=Code_1

